GridConnected_microgrid/OpenDSS/UCSD Microgrid OpenDSS Model/UntouchedUCSD_RedModel_120controllable_nodes.dss
Clear

New Circuit.ucsdMicrogrid_Reduced bus1=SDG&E_69KV basekv=69 pu=1 angle=0 frequency=60 MVAsc3=20000 MVAsc1=20000 x1r1=8.6 x0r0=8.9 BaseFreq=60
New Line.e_1_9_1_11_e_1_9_11 Phases=3 bus1=e_1_9_1_11.1.2.3 bus2=e_1_9_11.1.2.3 Units=km Length=0.012192 Rmatrix=[0.0710846666667    0.0120296666667    0.0120296666667| 0.0120296666667    0.0710846666667    0.0120296666667| 0.0120296666667    0.0120296666667    0.0710846666667|] Xmatrix=[ 0.138888666667    0.0503056666667    0.0503056666667| 0.0503056666667     0.138888666667    0.0503056666667| 0.0503056666667    0.0503056666667     0.138888666667|] Cmatrix=[0                  0                  0| 0                  0                  0| 0                  0                  0|]
New Line.e_1_9_1_11_bus_t_136_pri Phases=3 bus1=e_1_9_1_11.1.2.3 bus2=bus_t_136_pri.1.2.3 Units=km Length=0.03048 Rmatrix=[0.0710846666656    0.0120296666664    0.0120296666664| 0.0120296666664    0.0710846666656    0.0120296666664| 0.0120296666664    0.0120296666664    0.0710846666656|] Xmatrix=[ 0.138888666666    0.0503056666662    0.0503056666662| 0.0503056666662     0.138888666666    0.0503056666662| 0.0503056666662    0.0503056666662     0.138888666666|] Cmatrix=[0                  0                  0| 0                  0                  0| 0                  0                  0|]
New Line.mcss_ma_t_050 Phases=3 bus1=mcss_ma.1.2.3 bus2=t_050.1.2.3 Units=km Length=0.7165848 Rmatrix=[0.0625778080889    0.0106119048049    0.0106119048049| 0.0106119048049    0.0625778080888    0.0106119048049| 0.0106119048049    0.0106119048049    0.0625778080889|] Xmatrix=[ 0.133218195611    0.0474710073064    0.0474710073064| 0.0474710073064     0.133218195611    0.0474710073064| 0.0474710073064    0.0474710073064     0.133218195611|] Cmatrix=[0                  0                  0| 0                  0                  0| 0                  0                  0|]
New Line.mcss_ma_t_305_pri Phases=3 bus1=mcss_ma.1.2.3 bus2=t_305_pri.1.2.3 Units=km Length=0.633984 Rmatrix=[ 0.0554694254147   0.00942721452752   0.00942721452752| 0.00942721452752    0.0554694254147   0.00942721452752| 0.00942721452752   0.00942721452752    0.0554694254147|] Xmatrix=[ 0.128479915845    0.0451023489367    0.0451023489367| 0.0451023489367     0.128479915845    0.0451023489367| 0.0451023489367    0.0451023489367     0.128479915845|] Cmatrix=[0                  0                  0| 0                  0                  0| 0                  0                  0|]
New Line.mcss_mc_e_5_5_436 Phases=3 bus1=mcss_mc.1.2.3 bus2=e_5_5_436.1.2.3 Units=km Length=0.233172 Rmatrix=[0.0710846665307    0.0120296666314    0.0120296666314| 0.0120296666314    0.0710846665307    0.0120296666314| 0.0120296666314    0.0120296666314    0.0710846665307|] Xmatrix=[ 0.138888666566    0.0503056666077    0.0503056666077| 0.0503056666077     0.138888666566    0.0503056666077| 0.0503056666077    0.0503056666077     0.138888666566|] Cmatrix=[0                  0                  0| 0                  0                  0| 0                  0                  0|]
New Line.east_campus_1_revelle_1 Phases=3 bus1=east_campus_1.1.2.3 bus2=revelle_1.1.2.3 Units=km Length=2.479548 Rmatrix=[0.0710846482301    0.0120296618873    0.0120296618873| 0.0120296618873      0.07108464823    0.0120296618873| 0.0120296618873    0.0120296618873    0.0710846482303|] Xmatrix=[ 0.138888652981    0.0503056586719    0.0503056586719| 0.0503056586719     0.138888652981    0.0503056586719| 0.0503056586719    0.0503056586719     0.138888652981|] Cmatrix=[0                  0                  0| 0                  0                  0| 0                  0                  0|]
New Line.east_campus_1_e_7_1_7 Phases=3 bus1=east_campus_1.1.2.3 bus2=e_7_1_7.1.2.3 Units=km Length=0.021336 Rmatrix=[0.0710846666667    0.0120296666667    0.0120296666667| 0.0120296666667    0.0710846666666    0.0120296666667| 0.0120296666667    0.0120296666667    0.0710846666667|] Xmatrix=[ 0.138888666667    0.0503056666667    0.0503056666667| 0.0503056666667     0.138888666667    0.0503056666667| 0.0503056666667    0.0503056666667     0.138888666667|] Cmatrix=[0                  0                  0| 0                  0                  0| 0                  0                  0|]
New Line.east_campus_1_mcss_ma Phases=3 bus1=east_campus_1.1.2.3 bus2=mcss_ma.1.2.3 Units=km Length=0.4227576 Rmatrix=[ 0.0513999996692   0.00874899991875   0.00874899991875| 0.00874899991875    0.0513999996692   0.00874899991875| 0.00874899991875   0.00874899991875    0.0513999996692|] Xmatrix=[ 0.125767332989    0.0437463331638    0.0437463331638| 0.0437463331638     0.125767332989    0.0437463331638| 0.0437463331638    0.0437463331638     0.125767332989|] Cmatrix=[0                  0                  0| 0                  0                  0| 0                  0                  0|]
New Line.east_campus_1_n_campus_a Phases=3 bus1=east_campus_1.1.2.3 bus2=n_campus_a.1.2.3 Units=km Length=1.435608 Rmatrix=[ 0.071084660506    0.0120296650663    0.0120296650665| 0.0120296650663     0.071084660511    0.0120296650667| 0.0120296650665    0.0120296650667    0.0710846605114|] Xmatrix=[ 0.138888662085    0.0503056639909    0.0503056639907| 0.0503056639909     0.138888662101    0.0503056639905| 0.0503056639907    0.0503056639905     0.138888662073|] Cmatrix=[0                  0                  0| 0                  0                  0| 0                  0                  0|]
New Line.psb_sg1_bus Phases=3 bus1=psb.1.2.3 bus2=sg1_bus.1.2.3 Units=km Length=0.085344 Rmatrix=[0.0710846666664    0.0120296666667    0.0120296666666| 0.0120296666667    0.0710846666667    0.0120296666667| 0.0120296666666    0.0120296666667    0.0710846666665|] Xmatrix=[ 0.138888666667    0.0503056666668    0.0503056666666| 0.0503056666668     0.138888666667    0.0503056666664| 0.0503056666666    0.0503056666664     0.138888666667|] Cmatrix=[0                  0                  0| 0                  0                  0| 0                  0                  0|]
New Line.psb_bus_t_234_pri Phases=3 bus1=psb.1.2.3 bus2=bus_t_234_pri.1.2.3 Units=km Length=0.108204 Rmatrix=[0.0710846666383    0.0120296666589     0.012029666659| 0.0120296666589    0.0710846666374    0.0120296666589|  0.012029666659    0.0120296666589    0.0710846666381|] Xmatrix=[ 0.138888666646    0.0503056666541    0.0503056666542| 0.0503056666541     0.138888666645    0.0503056666538| 0.0503056666542    0.0503056666538     0.138888666645|] Cmatrix=[0                  0                  0| 0                  0                  0| 0                  0                  0|]
New Line.psb_psb_line_tg_2 Phases=3 bus1=psb.1.2.3 bus2=psb_line_tg_2.1.2.3 Units=km Length=0.0003048 Rmatrix=[ 0.071084666667    0.0120296666668    0.0120296666667| 0.0120296666668    0.0710846666665    0.0120296666667| 0.0120296666667    0.0120296666667    0.0710846666665|] Xmatrix=[ 0.138888666667    0.0503056666667    0.0503056666669| 0.0503056666667     0.138888666667    0.0503056666665| 0.0503056666669    0.0503056666665     0.138888666665|] Cmatrix=[0                  0                  0| 0                  0                  0| 0                  0                  0|]
New Line.ss_64_sio_bus_t_223_pri Phases=3 bus1=ss_64_sio.1.2.3 bus2=bus_t_223_pri.1.2.3 Units=km Length=0.0762 Rmatrix=[0.16076            0.02625            0.02625| 0.02625            0.16076            0.02625| 0.02625            0.02625            0.16076|] Xmatrix=[ 0.14873           0.050305           0.050305| 0.050305            0.14873           0.050305| 0.050305           0.050305            0.14873|] Cmatrix=[0                  0                  0| 0                  0                  0| 0                  0                  0|]
New Line.ss_64_sio_bus_t_349_pri Phases=3 bus1=ss_64_sio.1.2.3 bus2=bus_t_349_pri.1.2.3 Units=km Length=0.0762 Rmatrix=[0.16076            0.02625            0.02625| 0.02625            0.16076            0.02625| 0.02625            0.02625            0.16076|] Xmatrix=[ 0.14873           0.050305           0.050305| 0.050305            0.14873           0.050305| 0.050305           0.050305            0.14873|] Cmatrix=[0                  0                  0| 0                  0                  0| 0                  0                  0|]
New Line.bldg_3b_12kv_sw_t_301/302 Phases=3 bus1=bldg_3b_12kv.1.2.3 bus2=sw_t_301/302.1.2.3 Units=km Length=0.016764 Rmatrix=[0.0656166666667    0.0416666666667    0.0416666666667| 0.0416666666667    0.0656166666667    0.0416666666667| 0.0416666666667    0.0416666666667    0.0656166666667|] Xmatrix=[0.319333333333     0.188103333333     0.188103333333| 0.188103333333     0.319333333333     0.188103333333| 0.188103333333     0.188103333333     0.319333333333|] Cmatrix=[0                  0                  0| 0                  0                  0| 0                  0                  0|]
New Line.n_campus_b_e_7_17_17 Phases=3 bus1=n_campus_b.1.2.3 bus2=e_7_17_17.1.2.3 Units=km Length=0.7598664 Rmatrix=[0.0710846639315    0.0120296659572    0.0120296659572| 0.0120296659572    0.0710846639315    0.0120296659571| 0.0120296659572    0.0120296659571    0.0710846639315|] Xmatrix=[ 0.138888664636    0.0503056654802    0.0503056654802| 0.0503056654802     0.138888664636    0.0503056654802| 0.0503056654802    0.0503056654802     0.138888664636|] Cmatrix=[0                  0                  0| 0                  0                  0| 0                  0                  0|]
New Line.n_campus_b_t_281_pri Phases=3 bus1=n_campus_b.1.2.3 bus2=t_281_pri.1.2.3 Units=km Length=0.963168 Rmatrix=[0.0710846631697    0.0120296657604    0.0120296657604| 0.0120296657604    0.0710846631697    0.0120296657604| 0.0120296657604    0.0120296657604    0.0710846631697|] Xmatrix=[ 0.138888664071    0.0503056651505    0.0503056651505| 0.0503056651505     0.138888664071    0.0503056651505| 0.0503056651505    0.0503056651505     0.138888664071|] Cmatrix=[0                  0                  0| 0                  0                  0| 0                  0                  0|]
New Line.n_campus_b_e_1_9_8 Phases=3 bus1=n_campus_b.1.2.3 bus2=e_1_9_8.1.2.3 Units=km Length=0.445008 Rmatrix=[0.0710846660917    0.0120296665176    0.0120296665176| 0.0120296665176    0.0710846660917    0.0120296665176| 0.0120296665176    0.0120296665176    0.0710846660917|] Xmatrix=[  0.13888866624    0.0503056664173    0.0503056664173| 0.0503056664173      0.13888866624    0.0503056664173| 0.0503056664173    0.0503056664173      0.13888866624|] Cmatrix=[0                  0                  0| 0                  0                  0| 0                  0                  0|]
New Line.n_campus_b_ss_92_erc Phases=3 bus1=n_campus_b.1.2.3 bus2=ss_92_erc.1.2.3 Units=km Length=0.915924 Rmatrix=[0.0710846641726    0.0120296660201    0.0120296660201| 0.0120296660201    0.0710846641726    0.0120296660201| 0.0120296660201    0.0120296660201    0.0710846641726|] Xmatrix=[ 0.138888664815    0.0503056655852    0.0503056655852| 0.0503056655852     0.138888664815    0.0503056655852| 0.0503056655852    0.0503056655852     0.138888664815|] Cmatrix=[0                  0                  0| 0                  0                  0| 0                  0                  0|]
New Line.n_campus_b_bus_t_284_pri Phases=3 bus1=n_campus_b.1.2.3 bus2=bus_t_284_pri.1.2.3 Units=km Length=1.345692 Rmatrix=[0.0710846600585    0.0120296649526    0.0120296649526| 0.0120296649526    0.0710846600585    0.0120296649526| 0.0120296649526    0.0120296649526    0.0710846600585|] Xmatrix=[ 0.138888661761    0.0503056638003    0.0503056638003| 0.0503056638003     0.138888661761    0.0503056638003| 0.0503056638003    0.0503056638003     0.138888661761|] Cmatrix=[0                  0                  0| 0                  0                  0| 0                  0                  0|]
New Line.n_campus_c_e_7_12_2_337 Phases=3 bus1=n_campus_c.1.2.3 bus2=e_7_12_2_337.1.2.3 Units=km Length=0.309372 Rmatrix=[0.0710846664058     0.012029666599     0.012029666599|  0.012029666599    0.0710846664058     0.012029666599|  0.012029666599     0.012029666599    0.0710846664058|] Xmatrix=[ 0.138888666473    0.0503056665535    0.0503056665535| 0.0503056665535     0.138888666473    0.0503056665535| 0.0503056665535    0.0503056665535     0.138888666473|] Cmatrix=[0                  0                  0| 0                  0                  0| 0                  0                  0|]
New Line.bus_nc17_ebu2_lab_pri Phases=3 bus1=bus_nc17.1.2.3 bus2=ebu2_lab_pri.1.2.3 Units=km Length=0.333756 Rmatrix=[0.0710846663751     0.012029666591     0.012029666591|  0.012029666591    0.0710846663755     0.012029666591|  0.012029666591     0.012029666591    0.0710846663754|] Xmatrix=[  0.13888866645    0.0503056665403    0.0503056665402| 0.0503056665403      0.13888866645    0.0503056665403| 0.0503056665402    0.0503056665403      0.13888866645|] Cmatrix=[0                  0                  0| 0                  0                  0| 0                  0                  0|]
New Line.bus_nc17_e_7_11_17 Phases=3 bus1=bus_nc17.1.2.3 bus2=e_7_11_17.1.2.3 Units=km Length=0.05334 Rmatrix=[0.0710846666663    0.0120296666667    0.0120296666667| 0.0120296666667    0.0710846666666    0.0120296666667| 0.0120296666667    0.0120296666667     0.071084666667|] Xmatrix=[ 0.138888666665    0.0503056666666    0.0503056666667| 0.0503056666666     0.138888666667    0.0503056666667| 0.0503056666667    0.0503056666667     0.138888666667|] Cmatrix=[0                  0                  0| 0                  0                  0| 0                  0                  0|]
New Line.n_campus_a_bus_nc17 Phases=3 bus1=n_campus_a.1.2.3 bus2=bus_nc17.1.2.3 Units=km Length=0.0009144 Rmatrix=[0.0710846666667    0.0120296666667    0.0120296666667| 0.0120296666667    0.0710846666667    0.0120296666667| 0.0120296666667    0.0120296666667    0.0710846666667|] Xmatrix=[ 0.138888666666    0.0503056666666    0.0503056666667| 0.0503056666666     0.138888666667    0.0503056666667| 0.0503056666667    0.0503056666667     0.138888666667|] Cmatrix=[0                  0                  0| 0                  0                  0| 0                  0                  0|]
New Line.n_campus_a_e_1_9_3_305 Phases=3 bus1=n_campus_a.1.2.3 bus2=e_1_9_3_305.1.2.3 Units=km Length=0.429768 Rmatrix=[0.0710846661423    0.0120296665339    0.0120296665331| 0.0120296665339    0.0710846661549    0.0120296665336| 0.0120296665331    0.0120296665336    0.0710846661527|] Xmatrix=[ 0.138888666277    0.0503056664437    0.0503056664419| 0.0503056664437      0.13888866629    0.0503056664432| 0.0503056664419    0.0503056664432     0.138888666274|] Cmatrix=[0                  0                  0| 0                  0                  0| 0                  0                  0|]
New Line.n_campus_a_e_1_9_1_11 Phases=3 bus1=n_campus_a.1.2.3 bus2=e_1_9_1_11.1.2.3 Units=km Length=0.432816 Rmatrix=[0.0710846661414    0.0120296665307    0.0120296665305| 0.0120296665307    0.0710846661389    0.0120296665303| 0.0120296665305    0.0120296665303    0.0710846661418|] Xmatrix=[ 0.138888666276    0.0503056664391    0.0503056664381| 0.0503056664391     0.138888666271    0.0503056664392| 0.0503056664381    0.0503056664392     0.138888666261|] Cmatrix=[0                  0                  0| 0                  0                  0| 0                  0                  0|]
New Line.n_campus_a_e_2_9_15 Phases=3 bus1=n_campus_a.1.2.3 bus2=e_2_9_15.1.2.3 Units=km Length=1.66878 Rmatrix=[0.0710846571225    0.0120296641912    0.0120296641912| 0.0120296641912    0.0710846571223    0.0120296641914| 0.0120296641912    0.0120296641914    0.0710846571177|] Xmatrix=[ 0.138888659586    0.0503056625279    0.0503056625273| 0.0503056625279     0.138888659593    0.0503056625273| 0.0503056625273    0.0503056625273     0.138888659584|] Cmatrix=[0                  0                  0| 0                  0                  0| 0                  0                  0|]
New Line.n_campus_a_e_2_9_12 Phases=3 bus1=n_campus_a.1.2.3 bus2=e_2_9_12.1.2.3 Units=km Length=1.56972 Rmatrix=[0.0710846592703     0.012029664749    0.0120296647495|  0.012029664749    0.0710846592711    0.0120296647492| 0.0120296647495    0.0120296647492     0.071084659271|] Xmatrix=[ 0.138888661187    0.0503056634597    0.0503056634602| 0.0503056634597     0.138888661169    0.0503056634586| 0.0503056634602    0.0503056634586     0.138888661187|] Cmatrix=[0                  0                  0| 0                  0                  0| 0                  0                  0|]
New Line.revelle_2_t_pharm_esa_p Phases=3 bus1=revelle_2.1.2.3 bus2=t_pharm_esa_p.1.2.3 Units=km Length=0.40386 Rmatrix=[0.0710846657441    0.0120296664258    0.0120296664258| 0.0120296664258    0.0710846657441    0.0120296664258| 0.0120296664258    0.0120296664258    0.0710846657441|] Xmatrix=[ 0.138888665981    0.0503056662651    0.0503056662651| 0.0503056662651     0.138888665981    0.0503056662651| 0.0503056662651    0.0503056662651     0.138888665981|] Cmatrix=[0                  0                  0| 0                  0                  0| 0                  0                  0|]
New Line.revelle_2_black_box_pri Phases=3 bus1=revelle_2.1.2.3 bus2=black_box_pri.1.2.3 Units=km Length=0.562356 Rmatrix=[0.0710846646777    0.0120296661505    0.0120296661505| 0.0120296661505    0.0710846646777    0.0120296661505| 0.0120296661505    0.0120296661505    0.0710846646777|] Xmatrix=[  0.13888866519    0.0503056658037    0.0503056658037| 0.0503056658037      0.13888866519    0.0503056658037| 0.0503056658037    0.0503056658037      0.13888866519|] Cmatrix=[0                  0                  0| 0                  0                  0| 0                  0                  0|]
New Line.revelle_2_sio_1_sub Phases=3 bus1=revelle_2.1.2.3 bus2=sio_1_sub.1.2.3 Units=km Length=2.054352 Rmatrix=[0.0710846507091    0.0120296625289    0.0120296625289| 0.0120296625289    0.0710846507091    0.0120296625289| 0.0120296625289    0.0120296625289    0.0710846507091|] Xmatrix=[ 0.138888654821    0.0503056597461    0.0503056597461| 0.0503056597461     0.138888654821    0.0503056597461| 0.0503056597461    0.0503056597461     0.138888654821|] Cmatrix=[0                  0                  0| 0                  0                  0| 0                  0                  0|]
New Line.revelle_2_ss_30_rc Phases=3 bus1=revelle_2.1.2.3 bus2=ss_30_rc.1.2.3 Units=km Length=0.291084 Rmatrix=[0.0710846664519     0.012029666611     0.012029666611|  0.012029666611    0.0710846664519     0.012029666611|  0.012029666611     0.012029666611    0.0710846664519|] Xmatrix=[ 0.138888666507    0.0503056665735    0.0503056665735| 0.0503056665735     0.138888666507    0.0503056665735| 0.0503056665735    0.0503056665735     0.138888666507|] Cmatrix=[0                  0                  0| 0                  0                  0| 0                  0                  0|]
New Line.revelle_2_psb Phases=3 bus1=revelle_2.1.2.3 bus2=psb.1.2.3 Units=km Length=0.094488 Rmatrix=[ 1.15105354776     0.703150322221     0.703150322218| 0.703150322221      1.15105354776     0.703150322206| 0.703150322218     0.703150322206      1.15105354778|] Xmatrix=[ 1.26271419332      0.61997354823     0.619973548232|  0.61997354823      1.26271419325     0.619973548213| 0.619973548232     0.619973548213      1.26271419331|] Cmatrix=[0                  0                  0| 0                  0                  0| 0                  0                  0|]
New Line.revelle_1_e_10_11_14_109 Phases=3 bus1=revelle_1.1.2.3 bus2=e_10_11_14_109.1.2.3 Units=km Length=0.21336 Rmatrix=[0.0710846665658    0.0120296666405    0.0120296666405| 0.0120296666405    0.0710846665658    0.0120296666405| 0.0120296666405    0.0120296666405    0.0710846665658|] Xmatrix=[ 0.138888666592    0.0503056666229    0.0503056666229| 0.0503056666229     0.138888666592    0.0503056666229| 0.0503056666229    0.0503056666229     0.138888666592|] Cmatrix=[0                  0                  0| 0                  0                  0| 0                  0                  0|]
New Line.revelle_1_ss_31_rc Phases=3 bus1=revelle_1.1.2.3 bus2=ss_31_rc.1.2.3 Units=km Length=0.291084 Rmatrix=[0.0710846664519     0.012029666611     0.012029666611|  0.012029666611    0.0710846664519     0.012029666611|  0.012029666611     0.012029666611    0.0710846664519|] Xmatrix=[ 0.138888666507    0.0503056665735    0.0503056665735| 0.0503056665735     0.138888666507    0.0503056665735| 0.0503056665735    0.0503056665735     0.138888666507|] Cmatrix=[0                  0                  0| 0                  0                  0| 0                  0                  0|]
New Line.revelle_1_pri_bio_med Phases=3 bus1=revelle_1.1.2.3 bus2=pri_bio_med.1.2.3 Units=km Length=0.536448 Rmatrix=[0.0710846643069    0.0120296660516    0.0120296660516| 0.0120296660516    0.0710846643069    0.0120296660516| 0.0120296660516    0.0120296660516    0.0710846643069|] Xmatrix=[ 0.138888664914    0.0503056656406    0.0503056656406| 0.0503056656406     0.138888664914    0.0503056656406| 0.0503056656406    0.0503056656406     0.138888664914|] Cmatrix=[0                  0                  0| 0                  0                  0| 0                  0                  0|]
New Line.revelle_1_psa Phases=3 bus1=revelle_1.1.2.3 bus2=psa.1.2.3 Units=km Length=0.094488 Rmatrix=[ 1.15105354771      0.70315032221     0.703150322213|  0.70315032221      1.15105354774     0.703150322218| 0.703150322213     0.703150322218      1.15105354779|] Xmatrix=[ 1.26271419342     0.619973548274     0.619973548252| 0.619973548274      1.26271419336     0.619973548248| 0.619973548252     0.619973548248      1.26271419324|] Cmatrix=[0                  0                  0| 0                  0                  0| 0                  0                  0|]
New Line.e_1_5_11_t_341_pri Phases=3 bus1=e_1_5_11.1.2.3 bus2=t_341_pri.1.2.3 Units=km Length=0.46482 Rmatrix=[0.0710846657005    0.0120296664161    0.0120296664161| 0.0120296664161    0.0710846657005    0.0120296664161| 0.0120296664161    0.0120296664161    0.0710846657005|] Xmatrix=[ 0.138888665949    0.0503056662476    0.0503056662476| 0.0503056662476     0.138888665949    0.0503056662476| 0.0503056662476    0.0503056662476     0.138888665949|] Cmatrix=[0                  0                  0| 0                  0                  0| 0                  0                  0|]
New Line.e_1_5_11_ss_56_mc Phases=3 bus1=e_1_5_11.1.2.3 bus2=ss_56_mc.1.2.3 Units=km Length=0.085344 Rmatrix=[0.0710846666667    0.0120296666667    0.0120296666667| 0.0120296666667    0.0710846666667    0.0120296666667| 0.0120296666667    0.0120296666667    0.0710846666667|] Xmatrix=[ 0.138888666667    0.0503056666667    0.0503056666667| 0.0503056666667     0.138888666667    0.0503056666667| 0.0503056666667    0.0503056666667     0.138888666667|] Cmatrix=[0                  0                  0| 0                  0                  0| 0                  0                  0|]
New Line.e_1_9_2_305_bus_t_318_pri Phases=3 bus1=e_1_9_2_305.1.2.3 bus2=bus_t_318_pri.1.2.3 Units=km Length=0.240792 Rmatrix=[0.0710846662562      0.01202966656      0.01202966656|   0.01202966656    0.0710846662562      0.01202966656|   0.01202966656      0.01202966656    0.0710846662562|] Xmatrix=[ 0.138888666362    0.0503056664885    0.0503056664885| 0.0503056664885     0.138888666362    0.0503056664885| 0.0503056664885    0.0503056664885     0.138888666362|] Cmatrix=[0                  0                  0| 0                  0                  0| 0                  0                  0|]
New Line.e_1_9_2_305_hi_bay_ph_pri Phases=3 bus1=e_1_9_2_305.1.2.3 bus2=hi_bay_ph_pri.1.2.3 Units=km Length=0.067056 Rmatrix=[0.0710846666667    0.0120296666667    0.0120296666667| 0.0120296666667    0.0710846666667    0.0120296666667| 0.0120296666667    0.0120296666667    0.0710846666667|] Xmatrix=[ 0.138888666667    0.0503056666667    0.0503056666667| 0.0503056666667     0.138888666667    0.0503056666667| 0.0503056666667    0.0503056666667     0.138888666667|] Cmatrix=[0                  0                  0| 0                  0                  0| 0                  0                  0|]
New Line.e_1_7_8_bus_t_238_pri Phases=3 bus1=e_1_7_8.1.2.3 bus2=bus_t_238_pri.1.2.3 Units=km Length=0.470916 Rmatrix=[0.0710846656657    0.0120296664059    0.0120296664059| 0.0120296664059    0.0710846656657    0.0120296664059| 0.0120296664059    0.0120296664059    0.0710846656657|] Xmatrix=[ 0.138888665923    0.0503056662316    0.0503056662316| 0.0503056662316     0.138888665923    0.0503056662316| 0.0503056662316    0.0503056662316     0.138888665923|] Cmatrix=[0                  0                  0| 0                  0                  0| 0                  0                  0|]
New Line.e_1_7_8_ss_104_wc Phases=3 bus1=e_1_7_8.1.2.3 bus2=ss_104_wc.1.2.3 Units=km Length=0.0762 Rmatrix=[0.0710846666667    0.0120296666667    0.0120296666667| 0.0120296666667    0.0710846666667    0.0120296666667| 0.0120296666667    0.0120296666667    0.0710846666667|] Xmatrix=[ 0.138888666667    0.0503056666667    0.0503056666667| 0.0503056666667     0.138888666667    0.0503056666667| 0.0503056666667    0.0503056666667     0.138888666667|] Cmatrix=[0                  0                  0| 0                  0                  0| 0                  0                  0|]
New Line.e_1_8_11_e_1_5_11 Phases=3 bus1=e_1_8_11.1.2.3 bus2=e_1_5_11.1.2.3 Units=km Length=0.338328 Rmatrix=[0.0710846663032    0.0120296665725    0.0120296665725| 0.0120296665725    0.0710846663034    0.0120296665725| 0.0120296665725    0.0120296665725    0.0710846663032|] Xmatrix=[ 0.138888666397    0.0503056665091    0.0503056665091| 0.0503056665091     0.138888666397    0.0503056665091| 0.0503056665091    0.0503056665091     0.138888666397|] Cmatrix=[0                  0                  0| 0                  0                  0| 0                  0                  0|]
New Line.e_1_8_11_bus_t_79_pri Phases=3 bus1=e_1_8_11.1.2.3 bus2=bus_t_79_pri.1.2.3 Units=km Length=0.027432 Rmatrix=[ 0.086030555554    0.0143997222218    0.0143997222218| 0.0143997222218     0.086030555554    0.0143997222218| 0.0143997222218    0.0143997222218     0.086030555554|] Xmatrix=[ 0.140528888888    0.0503055555552    0.0503055555552| 0.0503055555552     0.140528888888    0.0503055555552| 0.0503055555552    0.0503055555552     0.140528888888|] Cmatrix=[0                  0                  0| 0                  0                  0| 0                  0                  0|]
New Line.e_1_9_11_e_1_8_11 Phases=3 bus1=e_1_9_11.1.2.3 bus2=e_1_8_11.1.2.3 Units=km Length=0.03048 Rmatrix=[0.0710846666667    0.0120296666667    0.0120296666667| 0.0120296666667    0.0710846666667    0.0120296666667| 0.0120296666667    0.0120296666667    0.0710846666667|] Xmatrix=[ 0.138888666667    0.0503056666667    0.0503056666667| 0.0503056666667     0.138888666667    0.0503056666667| 0.0503056666667    0.0503056666667     0.138888666667|] Cmatrix=[0                  0                  0| 0                  0                  0| 0                  0                  0|]
New Line.e_1_9_11_serf_bldg_pri Phases=3 bus1=e_1_9_11.1.2.3 bus2=serf_bldg_pri.1.2.3 Units=km Length=0.06096 Rmatrix=[0.0710846666667    0.0120296666667    0.0120296666667| 0.0120296666667    0.0710846666667    0.0120296666667| 0.0120296666667    0.0120296666667    0.0710846666667|] Xmatrix=[ 0.138888666667    0.0503056666667    0.0503056666667| 0.0503056666667     0.138888666667    0.0503056666667| 0.0503056666667    0.0503056666667     0.138888666667|] Cmatrix=[0                  0                  0| 0                  0                  0| 0                  0                  0|]
New Line.e_1_9_8_ss_42_wc Phases=3 bus1=e_1_9_8.1.2.3 bus2=ss_42_wc.1.2.3 Units=km Length=0.2670048 Rmatrix=[0.0710846664208    0.0120296666025    0.0120296666025| 0.0120296666025    0.0710846664205    0.0120296666025| 0.0120296666025    0.0120296666025    0.0710846664208|] Xmatrix=[ 0.138888666484    0.0503056665597    0.0503056665597| 0.0503056665597     0.138888666484    0.0503056665598| 0.0503056665597    0.0503056665598     0.138888666484|] Cmatrix=[0                  0                  0| 0                  0                  0| 0                  0                  0|]
New Line.e_1_9_8_e_1_7_8 Phases=3 bus1=e_1_9_8.1.2.3 bus2=e_1_7_8.1.2.3 Units=km Length=0.149352 Rmatrix=[0.0710846666339    0.0120296666582    0.0120296666582| 0.0120296666582    0.0710846666339    0.0120296666582| 0.0120296666582    0.0120296666582    0.0710846666339|] Xmatrix=[ 0.138888666642    0.0503056666524    0.0503056666524| 0.0503056666524     0.138888666642    0.0503056666524| 0.0503056666524    0.0503056666524     0.138888666642|] Cmatrix=[0                  0                  0| 0                  0                  0| 0                  0                  0|]
New Line.e_1_9_3_305_e_1_9_2_305 Phases=3 bus1=e_1_9_3_305.1.2.3 bus2=e_1_9_2_305.1.2.3 Units=km Length=0.109728 Rmatrix=[0.0710846666667    0.0120296666667    0.0120296666667| 0.0120296666667    0.0710846666666    0.0120296666667| 0.0120296666667    0.0120296666667    0.0710846666667|] Xmatrix=[ 0.138888666667    0.0503056666667    0.0503056666667| 0.0503056666667     0.138888666667    0.0503056666667| 0.0503056666667    0.0503056666667     0.138888666667|] Cmatrix=[0                  0                  0| 0                  0                  0| 0                  0                  0|]
New Line.e_1_9_3_305_ss_110_vis_a Phases=3 bus1=e_1_9_3_305.1.2.3 bus2=ss_110_vis_a.1.2.3 Units=km Length=0.009144 Rmatrix=[0.0710846666667    0.0120296666667    0.0120296666667| 0.0120296666667    0.0710846666667    0.0120296666667| 0.0120296666667    0.0120296666667    0.0710846666667|] Xmatrix=[ 0.138888666667    0.0503056666667    0.0503056666667| 0.0503056666667     0.138888666667    0.0503056666667| 0.0503056666667    0.0503056666667     0.138888666667|] Cmatrix=[0                  0                  0| 0                  0                  0| 0                  0                  0|]
New Line.e_10_10_202_ss_64_sio Phases=3 bus1=e_10_10_202.1.2.3 bus2=ss_64_sio.1.2.3 Units=km Length=0.370332 Rmatrix=[0.137879872105     0.022621766401     0.022621766401| 0.022621766401     0.137879872105     0.022621766401| 0.022621766401     0.022621766401     0.137879872105|] Xmatrix=[ 0.146219042423    0.0503051697655    0.0503051697655| 0.0503051697655     0.146219042423    0.0503051697655| 0.0503051697655    0.0503051697655     0.146219042423|] Cmatrix=[0                  0                  0| 0                  0                  0| 0                  0                  0|]
New Line.e_10_10_202_e_10_11_1_202 Phases=3 bus1=e_10_10_202.1.2.3 bus2=e_10_11_1_202.1.2.3 Units=km Length=0.096012 Rmatrix=[0.16076            0.02625            0.02625| 0.02625            0.16076            0.02625| 0.02625            0.02625            0.16076|] Xmatrix=[ 0.14873           0.050305           0.050305| 0.050305            0.14873           0.050305| 0.050305           0.050305            0.14873|] Cmatrix=[0                  0                  0| 0                  0                  0| 0                  0                  0|]
New Line.e_10_11_1_202_bus_t_123_pri Phases=3 bus1=e_10_11_1_202.1.2.3 bus2=bus_t_123_pri.1.2.3 Units=km Length=0.054864 Rmatrix=[ 0.153287055552    0.0250649722214    0.0250649722214| 0.0250649722214     0.153287055552    0.0250649722214| 0.0250649722214    0.0250649722214     0.153287055552|] Xmatrix=[ 0.147909888888    0.0503050555547    0.0503050555547| 0.0503050555547     0.147909888888    0.0503050555547| 0.0503050555547    0.0503050555547     0.147909888888|] Cmatrix=[0                  0                  0| 0                  0                  0| 0                  0                  0|]
New Line.e_10_11_1_202_ss_67_sio Phases=3 bus1=e_10_11_1_202.1.2.3 bus2=ss_67_sio.1.2.3 Units=km Length=0.019812 Rmatrix=[0.16076            0.02625            0.02625| 0.02625            0.16076            0.02625| 0.02625            0.02625            0.16076|] Xmatrix=[ 0.14873           0.050305           0.050305| 0.050305            0.14873           0.050305| 0.050305           0.050305            0.14873|] Cmatrix=[0                  0                  0| 0                  0                  0| 0                  0                  0|]
New Line.e_10_11_14_109_sio_2_sub Phases=3 bus1=e_10_11_14_109.1.2.3 bus2=sio_2_sub.1.2.3 Units=km Length=1.840992 Rmatrix=[0.0710846564877     0.012029664028     0.012029664028|  0.012029664028    0.0710846564877     0.012029664028|  0.012029664028     0.012029664028    0.0710846564877|] Xmatrix=[ 0.138888659111    0.0503056622527    0.0503056622527| 0.0503056622527     0.138888659111    0.0503056622527| 0.0503056622527    0.0503056622527     0.138888659111|] Cmatrix=[0                  0                  0| 0                  0                  0| 0                  0                  0|]
New Line.e_10_11_14_109_bus_t_257_pri Phases=3 bus1=e_10_11_14_109.1.2.3 bus2=bus_t_257_pri.1.2.3 Units=km Length=0.262128 Rmatrix=[0.0710846664248    0.0120296666038    0.0120296666038| 0.0120296666038    0.0710846664248    0.0120296666038| 0.0120296666038    0.0120296666038    0.0710846664248|] Xmatrix=[ 0.138888666487    0.0503056665617    0.0503056665617| 0.0503056665617     0.138888666487    0.0503056665617| 0.0503056665617    0.0503056665617     0.138888666487|] Cmatrix=[0                  0                  0| 0                  0                  0| 0                  0                  0|]
New Line.sio_2_sub_sverd_us1_pri Phases=3 bus1=sio_2_sub.1.2.3 bus2=sverd_us1_pri.1.2.3 Units=km Length=0.3429 Rmatrix=[ 0.156375871319    0.0255547834084    0.0255547834084| 0.0255547834084     0.156375871319    0.0255547834084| 0.0255547834084    0.0255547834084     0.156375871319|] Xmatrix=[ 0.148248868193    0.0503050323746    0.0503050323746| 0.0503050323746     0.148248868193    0.0503050323746| 0.0503050323746    0.0503050323746     0.148248868193|] Cmatrix=[0                  0                  0| 0                  0                  0| 0                  0                  0|]
New Line.sio_1_sub_e_10_10_202 Phases=3 bus1=sio_1_sub.1.2.3 bus2=e_10_10_202.1.2.3 Units=km Length=0.25146 Rmatrix=[0.0710846665151    0.0120296666274    0.0120296666274| 0.0120296666274    0.0710846665151    0.0120296666274| 0.0120296666274    0.0120296666274    0.0710846665151|] Xmatrix=[ 0.138888666554    0.0503056666009    0.0503056666009| 0.0503056666009     0.138888666554    0.0503056666009| 0.0503056666009    0.0503056666009     0.138888666554|] Cmatrix=[0                  0                  0| 0                  0                  0| 0                  0                  0|]
New Line.sio_1_sub_ss_52_sio Phases=3 bus1=sio_1_sub.1.2.3 bus2=ss_52_sio.1.2.3 Units=km Length=0.516636 Rmatrix=[ 0.159437352253    0.0260402599453    0.0260402599453| 0.0260402599453     0.159437352253    0.0260402599453| 0.0260402599453    0.0260402599453     0.159437352253|] Xmatrix=[ 0.148584847797    0.0503050093973    0.0503050093973| 0.0503050093973     0.148584847797    0.0503050093973| 0.0503050093973    0.0503050093973     0.148584847797|] Cmatrix=[0                  0                  0| 0                  0                  0| 0                  0                  0|]
New Line.ss_83_mc_12_phys_ed_pri Phases=3 bus1=ss_83_mc_12.1.2.3 bus2=phys_ed_pri.1.2.3 Units=km Length=0.231648 Rmatrix=[0.0710846666667    0.0120296666667    0.0120296666667| 0.0120296666667    0.0710846666667    0.0120296666667| 0.0120296666667    0.0120296666667    0.0710846666667|] Xmatrix=[ 0.138888666667    0.0503056666667    0.0503056666667| 0.0503056666667     0.138888666667    0.0503056666667| 0.0503056666667    0.0503056666667     0.138888666667|] Cmatrix=[0                  0                  0| 0                  0                  0| 0                  0                  0|]
New Line.ss_83_mc_15_ss_41_mc Phases=3 bus1=ss_83_mc_15.1.2.3 bus2=ss_41_mc.1.2.3 Units=km Length=0.260604 Rmatrix=[ 0.071084666512    0.0120296666266    0.0120296666266| 0.0120296666266     0.071084666512    0.0120296666266| 0.0120296666266    0.0120296666266    0.0710846665121|] Xmatrix=[ 0.138888666552    0.0503056665996    0.0503056665996| 0.0503056665996     0.138888666552    0.0503056665996| 0.0503056665996    0.0503056665996     0.138888666552|] Cmatrix=[0                  0                  0| 0                  0                  0| 0                  0                  0|]
New Line.ss_83_mc_15_sw_t_219 Phases=3 bus1=ss_83_mc_15.1.2.3 bus2=sw_t_219.1.2.3 Units=km Length=0.006096 Rmatrix=[0.0710846666666    0.0120296666667    0.0120296666667| 0.0120296666667    0.0710846666666    0.0120296666667| 0.0120296666667    0.0120296666667    0.0710846666667|] Xmatrix=[ 0.138888666667    0.0503056666667    0.0503056666667| 0.0503056666667     0.138888666667    0.0503056666667| 0.0503056666667    0.0503056666667     0.138888666667|] Cmatrix=[0                  0                  0| 0                  0                  0| 0                  0                  0|]
New Line.e_2_6_12_ss_83_mc_12 Phases=3 bus1=e_2_6_12.1.2.3 bus2=ss_83_mc_12.1.2.3 Units=km Length=0.330708 Rmatrix=[0.0710846661844    0.0120296665416    0.0120296665416| 0.0120296665416    0.0710846661844    0.0120296665416| 0.0120296665416    0.0120296665416    0.0710846661844|] Xmatrix=[ 0.138888666309    0.0503056664575    0.0503056664575| 0.0503056664575     0.138888666309    0.0503056664575| 0.0503056664575    0.0503056664575     0.138888666309|] Cmatrix=[0                  0                  0| 0                  0                  0| 0                  0                  0|]
New Line.e_2_6_12_sb_b2a Phases=3 bus1=e_2_6_12.1.2.3 bus2=sb_b2a.1.2.3 Units=km Length=0.2286 Rmatrix=[0.0710846664849     0.012029666619     0.012029666619|  0.012029666619    0.0710846664849     0.012029666619|  0.012029666619     0.012029666619    0.0710846664849|] Xmatrix=[ 0.138888666531    0.0503056665874    0.0503056665874| 0.0503056665874     0.138888666531    0.0503056665874| 0.0503056665874    0.0503056665874     0.138888666531|] Cmatrix=[0                  0                  0| 0                  0                  0| 0                  0                  0|]
New Line.e_2_9_12_bldg_3b_12kv Phases=3 bus1=e_2_9_12.1.2.3 bus2=bldg_3b_12kv.1.2.3 Units=km Length=0.04572 Rmatrix=[0.0710846666667    0.0120296666667    0.0120296666667| 0.0120296666667    0.0710846666667    0.0120296666667| 0.0120296666667    0.0120296666667    0.0710846666667|] Xmatrix=[ 0.138888666667    0.0503056666667    0.0503056666667| 0.0503056666667     0.138888666667    0.0503056666667| 0.0503056666667    0.0503056666667     0.138888666667|] Cmatrix=[0                  0                  0| 0                  0                  0| 0                  0                  0|]
New Line.e_2_9_12_e_2_6_12 Phases=3 bus1=e_2_9_12.1.2.3 bus2=e_2_6_12.1.2.3 Units=km Length=0.598932 Rmatrix=[0.0710846657622    0.0120296664322    0.0120296664322| 0.0120296664322    0.0710846657622    0.0120296664322| 0.0120296664322    0.0120296664322    0.0710846657622|] Xmatrix=[ 0.138888665995    0.0503056662745    0.0503056662745| 0.0503056662745     0.138888665995    0.0503056662745| 0.0503056662745    0.0503056662745     0.138888665995|] Cmatrix=[0                  0                  0| 0                  0                  0| 0                  0                  0|]
New Line.e_2_9_15_bldg_3b_15 Phases=3 bus1=e_2_9_15.1.2.3 bus2=bldg_3b_15.1.2.3 Units=km Length=0.04572 Rmatrix=[0.0710846666667    0.0120296666667    0.0120296666667| 0.0120296666667    0.0710846666667    0.0120296666667| 0.0120296666667    0.0120296666667    0.0710846666667|] Xmatrix=[ 0.138888666667    0.0503056666667    0.0503056666667| 0.0503056666667     0.138888666667    0.0503056666667| 0.0503056666667    0.0503056666667     0.138888666667|] Cmatrix=[0                  0                  0| 0                  0                  0| 0                  0                  0|]
New Line.e_2_9_15_ss_83_mc_15 Phases=3 bus1=e_2_9_15.1.2.3 bus2=ss_83_mc_15.1.2.3 Units=km Length=0.92964 Rmatrix=[0.0710846626758    0.0120296656313    0.0120296656313| 0.0120296656313    0.0710846626759    0.0120296656312| 0.0120296656313    0.0120296656312    0.0710846626747|] Xmatrix=[ 0.138888663704    0.0503056649353    0.0503056649351| 0.0503056649353     0.138888663706    0.0503056649352| 0.0503056649351    0.0503056649352     0.138888663705|] Cmatrix=[0                  0                  0| 0                  0                  0| 0                  0                  0|]
New Line.east_campus_2_revelle_2 Phases=3 bus1=east_campus_2.1.2.3 bus2=revelle_2.1.2.3 Units=km Length=2.36982 Rmatrix=[ 0.071084649839    0.0120296623044    0.0120296623044| 0.0120296623044     0.071084649839    0.0120296623044| 0.0120296623044    0.0120296623044    0.0710846498391|] Xmatrix=[ 0.138888654176    0.0503056593697    0.0503056593697| 0.0503056593697     0.138888654176    0.0503056593697| 0.0503056593697    0.0503056593697     0.138888654176|] Cmatrix=[0                  0                  0| 0                  0                  0| 0                  0                  0|]
New Line.east_campus_2_mcss_mb Phases=3 bus1=east_campus_2.1.2.3 bus2=mcss_mb.1.2.3 Units=km Length=0.4105656 Rmatrix=[ 0.0513999996897   0.00874899992379   0.00874899992379| 0.00874899992379    0.0513999996897   0.00874899992379| 0.00874899992379   0.00874899992379    0.0513999996897|] Xmatrix=[  0.12576733301    0.0437463331743    0.0437463331743| 0.0437463331743      0.12576733301    0.0437463331743| 0.0437463331743    0.0437463331743      0.12576733301|] Cmatrix=[0                  0                  0| 0                  0                  0| 0                  0                  0|]
New Line.east_campus_2_n_campus_b Phases=3 bus1=east_campus_2.1.2.3 bus2=n_campus_b.1.2.3 Units=km Length=1.152144 Rmatrix=[0.0710846627137    0.0120296656419    0.0120296656419| 0.0120296656419    0.0710846627138    0.0120296656419| 0.0120296656419    0.0120296656419    0.0710846627137|] Xmatrix=[ 0.138888663732    0.0503056649526    0.0503056649526| 0.0503056649526     0.138888663732    0.0503056649526| 0.0503056649526    0.0503056649526     0.138888663732|] Cmatrix=[0                  0                  0| 0                  0                  0| 0                  0                  0|]
New Line.east_campus_3_mcss_mc Phases=3 bus1=east_campus_3.1.2.3 bus2=mcss_mc.1.2.3 Units=km Length=0.4041648 Rmatrix=[ 0.0513999997033   0.00874899992715   0.00874899992715| 0.00874899992715    0.0513999997033   0.00874899992715| 0.00874899992715   0.00874899992715    0.0513999997033|] Xmatrix=[ 0.125767333024    0.0437463331813    0.0437463331813| 0.0437463331813     0.125767333024    0.0437463331813| 0.0437463331813    0.0437463331813     0.125767333024|] Cmatrix=[0                  0                  0| 0                  0                  0| 0                  0                  0|]
New Line.east_campus_3_n_campus_c Phases=3 bus1=east_campus_3.1.2.3 bus2=n_campus_c.1.2.3 Units=km Length=1.146048 Rmatrix=[0.0710846627735    0.0120296656574    0.0120296656574| 0.0120296656574    0.0710846627735    0.0120296656574| 0.0120296656574    0.0120296656574    0.0710846627735|] Xmatrix=[ 0.138888663777    0.0503056649785    0.0503056649785| 0.0503056649785     0.138888663777    0.0503056649785| 0.0503056649785    0.0503056649785     0.138888663777|] Cmatrix=[0                  0                  0| 0                  0                  0| 0                  0                  0|]
New Line.e_5_5_436_t_270_pri Phases=3 bus1=e_5_5_436.1.2.3 bus2=t_270_pri.1.2.3 Units=km Length=0.278892 Rmatrix=[0.0710846665768    0.0120296666433    0.0120296666433| 0.0120296666433    0.0710846665768    0.0120296666433| 0.0120296666433    0.0120296666433    0.0710846665768|] Xmatrix=[   0.1388886666    0.0503056666277    0.0503056666277| 0.0503056666277       0.1388886666    0.0503056666277| 0.0503056666277    0.0503056666277       0.1388886666|] Cmatrix=[0                  0                  0| 0                  0                  0| 0                  0                  0|]
New Line.e_5_5_436_pri_t_306_shiley Phases=3 bus1=e_5_5_436.1.2.3 bus2=pri_t_306_shiley.1.2.3 Units=km Length=0.277368 Rmatrix=[0.0710846664302    0.0120296666042    0.0120296666042| 0.0120296666042    0.0710846664302    0.0120296666042| 0.0120296666042    0.0120296666042    0.0710846664302|] Xmatrix=[ 0.138888666491    0.0503056665631    0.0503056665631| 0.0503056665631     0.138888666491    0.0503056665631| 0.0503056665631    0.0503056665631     0.138888666491|] Cmatrix=[0                  0                  0| 0                  0                  0| 0                  0                  0|]
New Line.e_7_1_7_bus_t_287_pri Phases=3 bus1=e_7_1_7.1.2.3 bus2=bus_t_287_pri.1.2.3 Units=km Length=0.286512 Rmatrix=[0.0710846664415    0.0120296666083    0.0120296666083| 0.0120296666083    0.0710846664415    0.0120296666083| 0.0120296666083    0.0120296666083    0.0710846664415|] Xmatrix=[  0.1388886665     0.050305666569     0.050305666569| 0.050305666569       0.1388886665     0.050305666569| 0.050305666569     0.050305666569       0.1388886665|] Cmatrix=[0                  0                  0| 0                  0                  0| 0                  0                  0|]
New Line.e_7_1_7_c_service_pri Phases=3 bus1=e_7_1_7.1.2.3 bus2=c_service_pri.1.2.3 Units=km Length=1.210056 Rmatrix=[0.0710846619469    0.0120296654425    0.0120296654425| 0.0120296654425    0.0710846619469    0.0120296654425| 0.0120296654425    0.0120296654425    0.0710846619469|] Xmatrix=[ 0.138888663163    0.0503056646195    0.0503056646195| 0.0503056646195     0.138888663163    0.0503056646195| 0.0503056646195    0.0503056646195     0.138888663163|] Cmatrix=[0                  0                  0| 0                  0                  0| 0                  0                  0|]
New Line.e_7_11_17_bus_t_347_pri Phases=3 bus1=e_7_11_17.1.2.3 bus2=bus_t_347_pri.1.2.3 Units=km Length=0.880872 Rmatrix=[ 0.071084663789    0.0120296659182    0.0120296659182| 0.0120296659182     0.071084663789    0.0120296659182| 0.0120296659182    0.0120296659182     0.071084663789|] Xmatrix=[  0.13888866453    0.0503056654167    0.0503056654167| 0.0503056654167      0.13888866453    0.0503056654167| 0.0503056654167    0.0503056654167      0.13888866453|] Cmatrix=[0                  0                  0| 0                  0                  0| 0                  0                  0|]
New Line.e_7_11_17_bus_t_326_pri Phases=3 bus1=e_7_11_17.1.2.3 bus2=bus_t_326_pri.1.2.3 Units=km Length=0.039624 Rmatrix=[0.0710846666652    0.0120296666663    0.0120296666663| 0.0120296666663    0.0710846666652    0.0120296666663| 0.0120296666663    0.0120296666663    0.0710846666652|] Xmatrix=[0.138888666666     0.050305666666     0.050305666666| 0.050305666666     0.138888666666     0.050305666666| 0.050305666666     0.050305666666     0.138888666666|] Cmatrix=[0                  0                  0| 0                  0                  0| 0                  0                  0|]
New Line.e_7_12_2_337_ss_82_wc Phases=3 bus1=e_7_12_2_337.1.2.3 bus2=ss_82_wc.1.2.3 Units=km Length=0.050292 Rmatrix=[0.0710846666667    0.0120296666667    0.0120296666667| 0.0120296666667    0.0710846666667    0.0120296666667| 0.0120296666667    0.0120296666667    0.0710846666667|] Xmatrix=[ 0.138888666667    0.0503056666667    0.0503056666667| 0.0503056666667     0.138888666667    0.0503056666667| 0.0503056666667    0.0503056666667     0.138888666667|] Cmatrix=[0                  0                  0| 0                  0                  0| 0                  0                  0|]
New Line.e_7_12_2_337_ss_91_wc Phases=3 bus1=e_7_12_2_337.1.2.3 bus2=ss_91_wc.1.2.3 Units=km Length=0.079248 Rmatrix=[0.0710846666667    0.0120296666667    0.0120296666667| 0.0120296666667    0.0710846666667    0.0120296666667| 0.0120296666667    0.0120296666667    0.0710846666667|] Xmatrix=[ 0.138888666667    0.0503056666667    0.0503056666667| 0.0503056666667     0.138888666667    0.0503056666667| 0.0503056666667    0.0503056666667     0.138888666667|] Cmatrix=[0                  0                  0| 0                  0                  0| 0                  0                  0|]
New Line.e_7_17_17_sw_t_071/072 Phases=3 bus1=e_7_17_17.1.2.3 bus2=sw_t_071/072.1.2.3 Units=km Length=0.256032 Rmatrix=[0.0710846665151    0.0120296666273    0.0120296666273| 0.0120296666273    0.0710846665151    0.0120296666273| 0.0120296666273    0.0120296666273    0.0710846665151|] Xmatrix=[ 0.138888666554    0.0503056666009    0.0503056666009| 0.0503056666009     0.138888666554    0.0503056666009| 0.0503056666009    0.0503056666009     0.138888666554|] Cmatrix=[0                  0                  0| 0                  0                  0| 0                  0                  0|]
New Line.e_7_17_17_e_7_19_17 Phases=3 bus1=e_7_17_17.1.2.3 bus2=e_7_19_17.1.2.3 Units=km Length=0.263652 Rmatrix=[0.0710846664835    0.0120296666192    0.0120296666192| 0.0120296666192    0.0710846664835    0.0120296666192| 0.0120296666192    0.0120296666192    0.0710846664835|] Xmatrix=[ 0.138888666531    0.0503056665872    0.0503056665872| 0.0503056665872     0.138888666531    0.0503056665872| 0.0503056665872    0.0503056665872     0.138888666531|] Cmatrix=[0                  0                  0| 0                  0                  0| 0                  0                  0|]
New Line.e_7_19_17_bus_t_179_pri Phases=3 bus1=e_7_19_17.1.2.3 bus2=bus_t_179_pri.1.2.3 Units=km Length=0.263652 Rmatrix=[ 0.173690546506    0.0282313562832    0.0282313562832| 0.0282313562832     0.173690546506    0.0282313562832| 0.0282313562832    0.0282313562832     0.173690546506|] Xmatrix=[0.150287680153     0.052657171358     0.052657171358| 0.052657171358     0.150287680153     0.052657171358| 0.052657171358     0.052657171358     0.150287680153|] Cmatrix=[0                  0                  0| 0                  0                  0| 0                  0                  0|]
New Line.e_7_19_17_bus_t_345_pri Phases=3 bus1=e_7_19_17.1.2.3 bus2=bus_t_345_pri.1.2.3 Units=km Length=0.649224 Rmatrix=[0.0710846613982    0.0120296652942    0.0120296652942| 0.0120296652942    0.0710846613982    0.0120296652942| 0.0120296652942    0.0120296652942    0.0710846613983|] Xmatrix=[ 0.138888662753    0.0503056643764    0.0503056643764| 0.0503056643764     0.138888662753    0.0503056643764| 0.0503056643764    0.0503056643764     0.138888662753|] Cmatrix=[0                  0                  0| 0                  0                  0| 0                  0                  0|]
New Line.t_204_sec_east_campus_1 Phases=3 bus1=t_204_sec.1.2.3 bus2=east_campus_1.1.2.3 Units=km Length=0.048768 Rmatrix=[0.0710846666667    0.0120296666667    0.0120296666667| 0.0120296666667    0.0710846666667    0.0120296666667| 0.0120296666667    0.0120296666667    0.0710846666667|] Xmatrix=[ 0.138888666667    0.0503056666667    0.0503056666667| 0.0503056666667     0.138888666667    0.0503056666667| 0.0503056666667    0.0503056666667     0.138888666667|] Cmatrix=[0                  0                  0| 0                  0                  0| 0                  0                  0|]
New Line.t_205_sec_east_campus_2 Phases=3 bus1=t_205_sec.1.2.3 bus2=east_campus_2.1.2.3 Units=km Length=0.067056 Rmatrix=[0.0710846666667    0.0120296666667    0.0120296666667| 0.0120296666667    0.0710846666667    0.0120296666667| 0.0120296666667    0.0120296666667    0.0710846666667|] Xmatrix=[ 0.138888666667    0.0503056666667    0.0503056666667| 0.0503056666667     0.138888666667    0.0503056666667| 0.0503056666667    0.0503056666667     0.138888666667|] Cmatrix=[0                  0                  0| 0                  0                  0| 0                  0                  0|]
New Line.t_277_sec_east_campus_3 Phases=3 bus1=t_277_sec.1.2.3 bus2=east_campus_3.1.2.3 Units=km Length=0.085344 Rmatrix=[0.0710846666667    0.0120296666667    0.0120296666667| 0.0120296666667    0.0710846666667    0.0120296666667| 0.0120296666667    0.0120296666667    0.0710846666667|] Xmatrix=[ 0.138888666667    0.0503056666667    0.0503056666667| 0.0503056666667     0.138888666667    0.0503056666667| 0.0503056666667    0.0503056666667     0.138888666667|] Cmatrix=[0                  0                  0| 0                  0                  0| 0                  0                  0|]
New Line.ss_42_wc_t_137_pri Phases=3 bus1=ss_42_wc.1.2.3 bus2=t_137_pri.1.2.3 Units=km Length=0.004572 Rmatrix=[ 0.258096666667    0.0415566666667    0.0415566666667| 0.0415566666667     0.258096666667    0.0415566666667| 0.0415566666667    0.0415566666667     0.258096666667|] Xmatrix=[0.15967            0.05468            0.05468| 0.05468            0.15967            0.05468| 0.05468            0.05468            0.15967|] Cmatrix=[0                  0                  0| 0                  0                  0| 0                  0                  0|]
New Line.ss_42_wc_t_138_pri Phases=3 bus1=ss_42_wc.1.2.3 bus2=t_138_pri.1.2.3 Units=km Length=0.004572 Rmatrix=[ 0.258096666667    0.0415566666667    0.0415566666667| 0.0415566666667     0.258096666667    0.0415566666667| 0.0415566666667    0.0415566666667     0.258096666667|] Xmatrix=[0.15967            0.05468            0.05468| 0.05468            0.15967            0.05468| 0.05468            0.05468            0.15967|] Cmatrix=[0                  0                  0| 0                  0                  0| 0                  0                  0|]
New Line.psa_psa_line_tg_1 Phases=3 bus1=psa.1.2.3 bus2=psa_line_tg_1.1.2.3 Units=km Length=0.0003048 Rmatrix=[0.0710846666662    0.0120296666665    0.0120296666667| 0.0120296666665     0.071084666666    0.0120296666666| 0.0120296666667    0.0120296666666    0.0710846666666|] Xmatrix=[ 0.138888666666    0.0503056666666    0.0503056666667| 0.0503056666666     0.138888666665    0.0503056666667| 0.0503056666667    0.0503056666667     0.138888666667|] Cmatrix=[0                  0                  0| 0                  0                  0| 0                  0                  0|]
New Line.ss_31_rc_ss_36_rc Phases=3 bus1=ss_31_rc.1.2.3 bus2=ss_36_rc.1.2.3 Units=km Length=0.173736 Rmatrix=[0.0710846663954    0.0120296665957    0.0120296665957| 0.0120296665957    0.0710846663954    0.0120296665957| 0.0120296665957    0.0120296665957    0.0710846663954|] Xmatrix=[ 0.138888666465    0.0503056665485    0.0503056665485| 0.0503056665485     0.138888666465    0.0503056665485| 0.0503056665485    0.0503056665485     0.138888666465|] Cmatrix=[0                  0                  0| 0                  0                  0| 0                  0                  0|]
New Line.ss_30_rc_sw_t_095 Phases=3 bus1=ss_30_rc.1.2.3 bus2=sw_t_095.1.2.3 Units=km Length=0.111252 Rmatrix=[ 0.071084666602    0.0120296666499    0.0120296666499| 0.0120296666499     0.071084666602    0.0120296666499| 0.0120296666499    0.0120296666499    0.0710846666021|] Xmatrix=[ 0.138888666619    0.0503056666386    0.0503056666386| 0.0503056666386     0.138888666619    0.0503056666386| 0.0503056666386    0.0503056666386     0.138888666619|] Cmatrix=[0                  0                  0| 0                  0                  0| 0                  0                  0|]
New Line.ss_104_wc_bus_t_350_pri Phases=3 bus1=ss_104_wc.1.2.3 bus2=bus_t_350_pri.1.2.3 Units=km Length=0.006096 Rmatrix=[0.0710846666665    0.0120296666667    0.0120296666667| 0.0120296666667    0.0710846666667    0.0120296666667| 0.0120296666667    0.0120296666667    0.0710846666667|] Xmatrix=[ 0.138888666667    0.0503056666667    0.0503056666667| 0.0503056666667     0.138888666667    0.0503056666667| 0.0503056666667    0.0503056666667     0.138888666667|] Cmatrix=[0                  0                  0| 0                  0                  0| 0                  0                  0|]
New Line.ss_104_wc_bus_t_351_pri Phases=3 bus1=ss_104_wc.1.2.3 bus2=bus_t_351_pri.1.2.3 Units=km Length=0.012192 Rmatrix=[0.0710846666667    0.0120296666667    0.0120296666667| 0.0120296666667    0.0710846666667    0.0120296666667| 0.0120296666667    0.0120296666667    0.0710846666668|] Xmatrix=[ 0.138888666667    0.0503056666667    0.0503056666667| 0.0503056666667     0.138888666667    0.0503056666667| 0.0503056666667    0.0503056666667     0.138888666667|] Cmatrix=[0                  0                  0| 0                  0                  0| 0                  0                  0|]
New Line.ss_104_wc_bus_t_352_pri Phases=3 bus1=ss_104_wc.1.2.3 bus2=bus_t_352_pri.1.2.3 Units=km Length=0.018288 Rmatrix=[0.0710846666666    0.0120296666667    0.0120296666667| 0.0120296666667    0.0710846666667    0.0120296666667| 0.0120296666667    0.0120296666667    0.0710846666667|] Xmatrix=[ 0.138888666667    0.0503056666667    0.0503056666667| 0.0503056666667     0.138888666667    0.0503056666667| 0.0503056666667    0.0503056666667     0.138888666667|] Cmatrix=[0                  0                  0| 0                  0                  0| 0                  0                  0|]
New Line.db_cp_bus_t_259_pri Phases=3 bus1=db_cp.1.2.3 bus2=bus_t_259_pri.1.2.3 Units=km Length=0.96012 Rmatrix=[3.11462874793      1.95972976168      1.95972976168| 1.95972976168      3.11462874793      1.95972976168| 1.95972976168      1.95972976168      3.11462874793|] Xmatrix=[3.30603332578      1.65573369536      1.65573369536| 1.65573369536      3.30603332578      1.65573369536| 1.65573369536      1.65573369536      3.30603332578|] Cmatrix=[0                  0                  0| 0                  0                  0| 0                  0                  0|]
New Transformer.T_109_HEALTH_CEN Windings=2 Buses=[SS_56_MC HEALTH_CENTER] Conns=[delta wye] kVs=[12.47        0.208] kVAs=[300  300] %Rs=[1.17        1.17] XHL=4.86 %Noloadloss=0 %imag=0 MaxTap=1.05 MinTap=0.95 NumTaps=4
New Transformer.T_117_BLDG_3B Windings=2 Buses=[SW_T_301/302 CRB_3B] Conns=[delta wye] kVs=[12.47         0.48] kVAs=[750  750] %Rs=[1.02        1.02] XHL=5.35 %Noloadloss=0 %imag=0 MaxTap=1.05 MinTap=0.95 NumTaps=4
New Transformer.T_123_HUBBS_HALL Windings=2 Buses=[BUS_T_123_PRI HUBBS_HALL] Conns=[delta wye] kVs=[12.47         0.48] kVAs=[2000  2000] %Rs=[0.86        0.86] XHL=6.24 %Noloadloss=0 %imag=0 MaxTap=1.05 MinTap=0.95 NumTaps=4
New Transformer.T_135_FACULTY Windings=2 Buses=[SS_41_MC FACULTY_CLUB] Conns=[delta wye] kVs=[12.47        0.208] kVAs=[300  300] %Rs=[0.94        0.94] XHL=3.9 %Noloadloss=0 %imag=0 MaxTap=1.05 MinTap=0.95 NumTaps=4
New Transformer.T_136_POWELL Windings=2 Buses=[BUS_T_136_PRI POWELL_STRUCT] Conns=[delta wye] kVs=[12.47         0.48] kVAs=[2000  2240] %Rs=[0.71        0.71] XHL=5.67 %Noloadloss=0 %imag=0 MaxTap=1.05 MinTap=0.95 NumTaps=4
New Transformer.T_137_EBU1 Windings=2 Buses=[T_137_PRI T_137_SEC_EBU1] Conns=[delta wye] kVs=[12.47         0.48] kVAs=[1500  2000] %Rs=[0.93        0.93] XHL=6.11 %Noloadloss=0 %imag=0 MaxTap=1.05 MinTap=0.95 NumTaps=4
New Transformer.T_138_EBU1 Windings=2 Buses=[T_138_PRI EBU1_T_138] Conns=[delta wye] kVs=[12.47         0.48] kVAs=[1500  2000] %Rs=[0.75        0.75] XHL=6.02 %Noloadloss=0 %imag=0 MaxTap=1.05 MinTap=0.95 NumTaps=4
New Transformer.T_151_PHYS_ED Windings=2 Buses=[PHYS_ED_PRI PHYS_ED_BLDGS] Conns=[delta wye] kVs=[12.47         0.48] kVAs=[500  500] %Rs=[0.94        0.94] XHL=4.4 %Noloadloss=0 %imag=0 MaxTap=1.05 MinTap=0.95 NumTaps=4
New Transformer.T_171_C_SERVICE Windings=2 Buses=[C_SERVICE_PRI T_171_SEC] Conns=[delta wye] kVs=[12.47         0.48] kVAs=[1500  1500] %Rs=[0.9         0.9] XHL=5.91 %Noloadloss=0 %imag=0 MaxTap=1.05 MinTap=0.95 NumTaps=4
...